[General]
network = hw3_q1_2.simulations.Ethernet_network

sim-time-limit = 50s
**.ethernetSwitch.macTable.displayAddresses = true
**.ethernetSwitch.macTable.displayTables = true
**.ethernetSwitch.macTable.dump = true
**.ethernetHost1.cli.destAddress = ""
**.cli.destAddress = "ethernetHost1"
**.switch*.bridging.typename = "MacRelayUnit"
**.cli.sendInterval = exponential(100ms)
**.cli.reqLength = intuniform(50,1400)*1B
**.cli.respLength = intWithUnit(truncnormal(3000B,3000B))