[General]
network = hw3_q1_3.simulations.MixedLAN

sim-time-limit = 50s

[Config scenario1]
**.server.cli.destAddress = ""
**.cli.destAddress = "server"
**.switch*.bridging.typename = "MacRelayUnit"
**.cli.sendInterval = exponential(100ms)
**.cli.respLength = intWithUnit(truncnormal(3000B,3000B))
**.cli.reqLength = 500B
MixedLAN.k=8

[Config scenario2]
**.server.cli.destAddress = ""
**.cli.destAddress = "server"
**.switch*.bridging.typename = "MacRelayUnit"
**.cli.sendInterval = exponential(100ms)
**.cli.respLength = intWithUnit(truncnormal(3000B,3000B))
**.cli.reqLength = 500B
MixedLAN.k=20

[Config scenario3]
**.server.cli.destAddress = ""
**.cli.destAddress = "server"
**.switch*.bridging.typename = "MacRelayUnit"
**.cli.sendInterval = exponential(100ms)
**.cli.respLength = intWithUnit(truncnormal(3000B,3000B))
**.cli.reqLength = 500B
MixedLAN.k=100

[Config scenario4]
**.server.cli.destAddress = ""
**.cli.destAddress = "server"
**.switch*.bridging.typename = "MacRelayUnit"
**.cli.sendInterval = exponential(100ms)
**.cli.respLength = intWithUnit(truncnormal(3000B,3000B))
**.cli.reqLength = 500B
MixedLAN.k=200

[Config scenario5]
**.server.cli.destAddress = ""
**.cli.destAddress = "server"
**.switch*.bridging.typename = "MacRelayUnit"
**.cli.sendInterval = exponential(100ms)
**.cli.respLength = intWithUnit(truncnormal(3000B,3000B))
**.cli.reqLength = 100B
MixedLAN.k=8

[Config scenario6]
**.server.cli.destAddress = ""
**.cli.destAddress = "server"
**.switch*.bridging.typename = "MacRelayUnit"
**.cli.sendInterval = exponential(100ms)
**.cli.respLength = intWithUnit(truncnormal(3000B,3000B))
**.cli.reqLength = 1400B
MixedLAN.k=8