[General]
network = OSPF

sim-time-limit = 200s

**.ospf.ospfConfig = xmldoc("ASconfig.xml")

*.host*.numApps = 1
*.host*.app[0].typename = "PingApp"

*.host1.app[0].destAddr = "192.168.3.10"
*.host1.app[0].sendInterval = 1s
*.host1.app[0].startTime = 0.2s

*.host4.app[0].destAddr = "192.168.3.10"
*.host4.app[0].sendInterval = 1s
*.host4.app[0].startTime = 0.4s

*.host2.app[0].destAddr = "192.168.2.3"
*.host2.app[0].sendInterval = 1s
*.host2.app[0].startTime = 0.6s