[General]
network = hw3_q2.simulations.VLANNetwork
sim-time-limit = 10s

*.PC1.eth[0].vlanId = 10
*.PC2.eth[0].vlanId = 20
*.PC3.eth[0].vlanId = 30
*.PC4.eth[0].vlanId = 10
*.PC5.eth[0].vlanId = 20
*.PC6.eth[0].vlanId = 30
**.PC2.cli.destAddress = "" 
**.PC4.cli.destAddress = "" 
**.PC5.cli.destAddress = "" 
**.PC6.cli.destAddress = "" 
**.PC1.cli.destAddress = "PC4" 
**.PC3.cli.destAddress = "PC6" 
*.configurator.config = xmldoc("config.xml")
